!-Generator IDFEditor 1.51
!-Option SortedOrder

!-NOTE: All comments with '!-' are ignored by the IDFEditor and are generated automatically.
!-      Use '!' comments if they need to be retained when using the IDFEditor.


!-   ===========  ALL OBJECTS IN CLASS: VERSION ===========

Version,
    9.4;                     !- Version Identifier


!-   ===========  ALL OBJECTS IN CLASS: SIMULATIONCONTROL ===========

SimulationControl,
    Yes,                     !- Do Zone Sizing Calculation
    Yes,                     !- Do System Sizing Calculation
    Yes,                     !- Do Plant Sizing Calculation
    No,                      !- Run Simulation for Sizing Periods
    Yes,                     !- Run Simulation for Weather File Run Periods
    No,                      !- Do HVAC Sizing Simulation for Sizing Periods
    1;                       !- Maximum Number of HVAC Sizing Simulation Passes


!-   ===========  ALL OBJECTS IN CLASS: BUILDING ===========

Building,
    Bueroraum,               !- Name
    0.0,                     !- North Axis {deg}
    City,                    !- Terrain
    0.05,                    !- Loads Convergence Tolerance Value {W}
    0.4,                     !- Temperature Convergence Tolerance Value {deltaC}
    FullInteriorAndExterior, !- Solar Distribution
    30,                      !- Maximum Number of Warmup Days
    6;                       !- Minimum Number of Warmup Days


!-   ===========  ALL OBJECTS IN CLASS: ZONEAIRCONTAMINANTBALANCE ===========

ZoneAirContaminantBalance,
    Yes,                     !- Carbon Dioxide Concentration
    CO2OutdoorConcentration, !- Outdoor Carbon Dioxide Schedule Name
    No;                      !- Generic Contaminant Concentration


!-   ===========  ALL OBJECTS IN CLASS: TIMESTEP ===========

Timestep,
    4;                       !- Number of Timesteps per Hour


!-   ===========  ALL OBJECTS IN CLASS: SITE:LOCATION ===========

Site:Location,
    Munich,                  !- Name
    48.13,                   !- Latitude {deg}
    11.7,                    !- Longitude {deg}
    1.0,                     !- Time Zone {hr}
    529;                     !- Elevation {m}


!-   ===========  ALL OBJECTS IN CLASS: SIZINGPERIOD:DESIGNDAY ===========

SizingPeriod:DesignDay,
    MUNICH Ann Htg 99.6% Condns DB,  !- Name
    1,                       !- Month
    21,                      !- Day of Month
    WinterDesignDay,         !- Day Type
    -14.2,                   !- Maximum Dry-Bulb Temperature {C}
    0.0,                     !- Daily Dry-Bulb Temperature Range {deltaC}
    ,                        !- Dry-Bulb Temperature Range Modifier Type
    ,                        !- Dry-Bulb Temperature Range Modifier Day Schedule Name
    Wetbulb,                 !- Humidity Condition Type
    -14.2,                   !- Wetbulb or DewPoint at Maximum Dry-Bulb {C}
    ,                        !- Humidity Condition Day Schedule Name
    ,                        !- Humidity Ratio at Maximum Dry-Bulb {kgWater/kgDryAir}
    ,                        !- Enthalpy at Maximum Dry-Bulb {J/kg}
    ,                        !- Daily Wet-Bulb Temperature Range {deltaC}
    95129.,                  !- Barometric Pressure {Pa}
    1.7,                     !- Wind Speed {m/s}
    80,                      !- Wind Direction {deg}
    No,                      !- Rain Indicator
    No,                      !- Snow Indicator
    No,                      !- Daylight Saving Time Indicator
    ASHRAEClearSky,          !- Solar Model Indicator
    ,                        !- Beam Solar Day Schedule Name
    ,                        !- Diffuse Solar Day Schedule Name
    ,                        !- ASHRAE Clear Sky Optical Depth for Beam Irradiance (taub) {dimensionless}
    ,                        !- ASHRAE Clear Sky Optical Depth for Diffuse Irradiance (taud) {dimensionless}
    0.00;                    !- Sky Clearness


!-   ===========  ALL OBJECTS IN CLASS: RUNPERIOD ===========

RunPeriod,
    Jahr,                    !- Name
    10,                      !- Begin Month
    1,                       !- Begin Day of Month
    ,                        !- Begin Year
    4,                       !- End Month
    30,                      !- End Day of Month
    ,                        !- End Year
    ,                        !- Day of Week for Start Day
    Yes,                     !- Use Weather File Holidays and Special Days
    Yes,                     !- Use Weather File Daylight Saving Period
    Yes,                     !- Apply Weekend Holiday Rule
    Yes,                     !- Use Weather File Rain Indicators
    Yes;                     !- Use Weather File Snow Indicators


!-   ===========  ALL OBJECTS IN CLASS: RUNPERIODCONTROL:SPECIALDAYS ===========

RunPeriodControl:SpecialDays,
    Neujahr,                 !- Name
    January 1,               !- Start Date
    1,                       !- Duration {days}
    Holiday;                 !- Special Day Type

RunPeriodControl:SpecialDays,
    Tag der Arbeit,          !- Name
    May 1,                   !- Start Date
    1,                       !- Duration {days}
    Holiday;                 !- Special Day Type

RunPeriodControl:SpecialDays,
    Tag der deutschen Einheit,  !- Name
    October 3,               !- Start Date
    1,                       !- Duration {days}
    Holiday;                 !- Special Day Type

RunPeriodControl:SpecialDays,
    Allerheiligen,           !- Name
    November 1,              !- Start Date
    1,                       !- Duration {days}
    Holiday;                 !- Special Day Type

RunPeriodControl:SpecialDays,
    Weihnachten,             !- Name
    December 25,             !- Start Date
    2,                       !- Duration {days}
    Holiday;                 !- Special Day Type

RunPeriodControl:SpecialDays,
    Karfreitag,              !- Name
    2nd Friday in April,     !- Start Date
    1,                       !- Duration {days}
    Holiday;                 !- Special Day Type

RunPeriodControl:SpecialDays,
    Ostern,                  !- Name
    2nd Sunday in April,     !- Start Date
    2,                       !- Duration {days}
    Holiday;                 !- Special Day Type

RunPeriodControl:SpecialDays,
    Christi Himmelfahrt,     !- Name
    3rd Thursday in May,     !- Start Date
    1,                       !- Duration {days}
    Holiday;                 !- Special Day Type

RunPeriodControl:SpecialDays,
    Pfingsten,               !- Name
    Last Sunday in May,      !- Start Date
    1,                       !- Duration {days}
    Holiday;                 !- Special Day Type

RunPeriodControl:SpecialDays,
    Fronleichnam,            !- Name
    2nd Thursday in June,    !- Start Date
    1,                       !- Duration {days}
    Holiday;                 !- Special Day Type


!-   ===========  ALL OBJECTS IN CLASS: RUNPERIODCONTROL:DAYLIGHTSAVINGTIME ===========

RunPeriodControl:DaylightSavingTime,
    Last Sunday in March,    !- Start Date
    Last Sunday in October;  !- End Date


!-   ===========  ALL OBJECTS IN CLASS: SCHEDULETYPELIMITS ===========

ScheduleTypeLimits,
    Any Number;              !- Name

ScheduleTypeLimits,
    Fraction,                !- Name
    0.0,                     !- Lower Limit Value
    1.0,                     !- Upper Limit Value
    CONTINUOUS;              !- Numeric Type

ScheduleTypeLimits,
    Temperature,             !- Name
    -60,                     !- Lower Limit Value
    200,                     !- Upper Limit Value
    CONTINUOUS,              !- Numeric Type
    Temperature;             !- Unit Type

ScheduleTypeLimits,
    On/Off,                  !- Name
    0,                       !- Lower Limit Value
    1,                       !- Upper Limit Value
    DISCRETE;                !- Numeric Type

ScheduleTypeLimits,
    Control Type,            !- Name
    0,                       !- Lower Limit Value
    4,                       !- Upper Limit Value
    DISCRETE;                !- Numeric Type

ScheduleTypeLimits,
    Humidity,                !- Name
    0,                       !- Lower Limit Value
    100,                     !- Upper Limit Value
    CONTINUOUS;              !- Numeric Type


!-   ===========  ALL OBJECTS IN CLASS: SCHEDULE:COMPACT ===========

Schedule:Compact,
    B001AnwesenheitSchedule, !- Name
    Fraction,                !- Schedule Type Limits Name
    Through: 12/31,          !- Field 1
    For: WinterDesignDay,    !- Field 2
    Until: 24:00,            !- Field 3
    0,                       !- Field 4
    For: SummerDesignDay,    !- Field 5
    Until: 08:00,            !- Field 6
    0.0,                     !- Field 7
    Until: 18:00,            !- Field 8
    1.0,                     !- Field 9
    Until: 24:00,            !- Field 10
    0.0,                     !- Field 11
    For: Weekdays,           !- Field 12
    Until: 08:00,            !- Field 13
    0.00,                    !- Field 14
    Until: 12:00,            !- Field 15
    1.00,                    !- Field 16
    Until: 13:00,            !- Field 17
    0.00,                    !- Field 18
    Until: 17:00,            !- Field 19
    1.00,                    !- Field 20
    Until: 24:00,            !- Field 21
    0.00,                    !- Field 22
    For: Saturday,           !- Field 23
    Until: 24:00,            !- Field 24
    0.0,                     !- Field 25
    For: Sunday Holidays AllOtherDays,  !- Field 26
    Until: 24:00,            !- Field 27
    0.0;                     !- Field 28

Schedule:Compact,
    BueroActivitySchedule,   !- Name
    Any Number,              !- Schedule Type Limits Name
    Through: 12/31,          !- Field 1
    For: AllDays,            !- Field 2
    Until: 24:00,            !- Field 3
    120;                     !- Field 4

Schedule:Compact,
    WorkEffSchedule,         !- Name
    Fraction,                !- Schedule Type Limits Name
    Through: 12/31,          !- Field 1
    For: AllDays,            !- Field 2
    Until: 24:00,            !- Field 3
    0.0;                     !- Field 4

Schedule:Compact,
    ClothingSchedule,        !- Name
    Any Number,              !- Schedule Type Limits Name
    Through: 03/15,          !- Field 1
    For: AllDays,            !- Field 2
    Until: 24:00,            !- Field 3
    1,                       !- Field 4
    Through: 06/10,          !- Field 5
    For: AllDays,            !- Field 6
    Until: 24:00,            !- Field 7
    0.75,                    !- Field 8
    Through: 09/25,          !- Field 9
    For: AllDays,            !- Field 10
    Until: 24:00,            !- Field 11
    0.5,                     !- Field 12
    Through: 11/15,          !- Field 13
    For: AllDays,            !- Field 14
    Until: 24:00,            !- Field 15
    0.75,                    !- Field 16
    Through: 12/31,          !- Field 17
    For: AllDays,            !- Field 18
    Until: 24:00,            !- Field 19
    1;                       !- Field 20

Schedule:Compact,
    AirVelocitySchedule,     !- Name
    Any Number,              !- Schedule Type Limits Name
    Through: 12/31,          !- Field 1
    For: Weekdays SummerDesignDay WinterDesignDay,  !- Field 2
    Until: 06:00,            !- Field 3
    0,                       !- Field 4
    Until: 22:00,            !- Field 5
    0.1,                     !- Field 6
    Until: 24:00,            !- Field 7
    0,                       !- Field 8
    For: Sunday Holidays AllOtherDays,  !- Field 9
    Until: 24:00,            !- Field 10
    0;                       !- Field 11

Schedule:Compact,
    B001PraesenzSchedule,    !- Name
    On/Off,                  !- Schedule Type Limits Name
    Through: 12/31,          !- Field 1
    For: WinterDesignDay,    !- Field 2
    Until: 24:00,            !- Field 3
    0,                       !- Field 4
    For: SummerDesignDay,    !- Field 5
    Until: 08:00,            !- Field 6
    0.0,                     !- Field 7
    Until: 18:00,            !- Field 8
    1.0,                     !- Field 9
    Until: 24:00,            !- Field 10
    0.0,                     !- Field 11
    For: Weekdays,           !- Field 12
    Until: 08:00,            !- Field 13
    0,                       !- Field 14
    Until: 12:00,            !- Field 15
    1,                       !- Field 16
    Until: 13:00,            !- Field 17
    0,                       !- Field 18
    Until: 17:00,            !- Field 19
    1,                       !- Field 20
    Until: 24:00,            !- Field 21
    0,                       !- Field 22
    For: Saturday,           !- Field 23
    Until: 24:00,            !- Field 24
    0,                       !- Field 25
    For: Sunday Holidays AllOtherDays,  !- Field 26
    Until: 24:00,            !- Field 27
    0;                       !- Field 28

Schedule:Compact,
    B001GeraeteSchedule,     !- Name
    Fraction,                !- Schedule Type Limits Name
    Through: 12/31,          !- Field 1
    For: WinterDesignDay,    !- Field 2
    Until: 24:00,            !- Field 3
    0,                       !- Field 4
    For: SummerDesignDay,    !- Field 5
    Until: 08:00,            !- Field 6
    0.0,                     !- Field 7
    Until: 18:00,            !- Field 8
    1.0,                     !- Field 9
    Until: 24:00,            !- Field 10
    0.0,                     !- Field 11
    For: Weekdays,           !- Field 12
    Until: 08:00,            !- Field 13
    0,                       !- Field 14
    Until: 18:00,            !- Field 15
    1,                       !- Field 16
    Until: 24:00,            !- Field 17
    0,                       !- Field 18
    For: Saturday,           !- Field 19
    Until: 24:00,            !- Field 20
    0,                       !- Field 21
    For: Sunday Holidays AllOtherDays,  !- Field 22
    Until: 24:00,            !- Field 23
    0;                       !- Field 24

Schedule:Compact,
    FeuchteSollwert ZuluftMin,  !- Name
    Humidity,                !- Schedule Type Limits Name
    Through: 12/31,          !- Field 1
    For: WinterDesignDay,    !- Field 2
    Until: 24:00,            !- Field 3
    30,                      !- Field 4
    For: SummerDesignDay,    !- Field 5
    Until: 24:00,            !- Field 6
    30,                      !- Field 7
    For: Weekdays,           !- Field 8
    Until: 06:00,            !- Field 9
    30,                      !- Field 10
    Until: 19:00,            !- Field 11
    30,                      !- Field 12
    Until: 24:00,            !- Field 13
    30,                      !- Field 14
    For: Saturday Sunday Holidays AllOtherDays,  !- Field 15
    Until: 24:00,            !- Field 16
    30;                      !- Field 17

Schedule:Compact,
    FeuchteSollwert ZuluftMax,  !- Name
    Humidity,                !- Schedule Type Limits Name
    Through: 12/31,          !- Field 1
    For: WinterDesignDay,    !- Field 2
    Until: 24:00,            !- Field 3
    65,                      !- Field 4
    For: SummerDesignDay,    !- Field 5
    Until: 24:00,            !- Field 6
    65,                      !- Field 7
    For: Weekdays,           !- Field 8
    Until: 06:00,            !- Field 9
    65,                      !- Field 10
    Until: 19:00,            !- Field 11
    65,                      !- Field 12
    Until: 24:00,            !- Field 13
    65,                      !- Field 14
    For: Saturday Sunday Holidays AllOtherDays,  !- Field 15
    Until: 24:00,            !- Field 16
    65;                      !- Field 17

Schedule:Compact,
    ZoneControlBueroSchedule,!- Name
    Control Type,            !- Schedule Type Limits Name
    Through: 12/31,          !- Field 1
    For: WinterDesignDay,    !- Field 2
    Until: 24:00,            !- Field 3
    1,                       !- Field 4
    For: SummerDesignDay,    !- Field 5
    Until: 24:00,            !- Field 6
    1,                       !- Field 7
    For: AllOtherDays,       !- Field 8
    Until: 24:00,            !- Field 9
    1;                       !- Field 10

Schedule:Compact,
    TempSollwert RaumHeizen HK,  !- Name
    Temperature,             !- Schedule Type Limits Name
    Through: 12/31,          !- Field 1
    For: WinterDesignDay,    !- Field 2
    Until: 24:00,            !- Field 3
    10,                      !- Field 4
    For: Weekdays,           !- Field 5
    Until: 06:00,            !- Field 6
    10,                      !- Field 7
    Until: 19:00,            !- Field 8
    10,                      !- Field 9
    Until: 24:00,            !- Field 10
    10,                      !- Field 11
    For: Saturday Sunday Holidays AllOtherDays,  !- Field 12
    Until: 24:00,            !- Field 13
    10;                      !- Field 14

Schedule:Compact,
    TempSollwert HK Supply,  !- Name
    Temperature,             !- Schedule Type Limits Name
    Through: 12/31,          !- Field 1
    For: AllDays,            !- Field 2
    Until: 24:00,            !- Field 3
    70;                      !- Field 4

Schedule:Compact,
    Fensterlueftung,         !- Name
    Any Number,              !- Schedule Type Limits Name
    Through: 12/31,          !- Field 1
    For: Weekdays,           !- Field 2
    Until: 08:15,            !- Field 3
    -100,                    !- Field 4
    Until: 08:45,            !- Field 5
    100,                     !- Field 6
    Until: 13:15,            !- Field 7
    -100,                    !- Field 8
    Until: 13:45,            !- Field 9
    100,                     !- Field 10
    Until 15:15,             !- Field 11
    -100,                    !- Field 12
    Until: 15:45,            !- Field 13
    100,                     !- Field 14
    Until: 24:00,            !- Field 15
    -100,                    !- Field 16
    For: Saturday Sunday Holidays AllOtherDays,  !- Field 17
    Until: 24:00,            !- Field 18
    -100;                    !- Field 19

Schedule:Compact,
    B001WinVentilationSchedule,  !- Name
    Fraction,                !- Schedule Type Limits Name
    Through: 12/31,          !- Field 1
    For: WinterDesignDay,    !- Field 2
    Until: 24:00,            !- Field 3
    0,                       !- Field 4
    For: SummerDesignDay,    !- Field 5
    Until: 08:00,            !- Field 6
    0.0,                     !- Field 7
    Until: 18:00,            !- Field 8
    0,                       !- Field 9
    Until: 24:00,            !- Field 10
    0.0,                     !- Field 11
    For: Weekdays,           !- Field 12
    Until: 08:00,            !- Field 13
    0,                       !- Field 14
    Until: 18:00,            !- Field 15
    0,                       !- Field 16
    Until: 24:00,            !- Field 17
    0,                       !- Field 18
    For: Saturday,           !- Field 19
    Until: 24:00,            !- Field 20
    0,                       !- Field 21
    For: Sunday Holidays AllOtherDays,  !- Field 22
    Until: 24:00,            !- Field 23
    0;                       !- Field 24


!-   ===========  ALL OBJECTS IN CLASS: SCHEDULE:CONSTANT ===========

Schedule:Constant,
    CO2OutdoorConcentration, !- Name
    Any Number,              !- Schedule Type Limits Name
    400;                     !- Hourly Value

Schedule:Constant,
    AlwaysOn,                !- Name
    Fraction,                !- Schedule Type Limits Name
    1;                       !- Hourly Value


!-   ===========  ALL OBJECTS IN CLASS: MATERIAL ===========

Material,
    Beton 250mm,             !- Name
    MediumRough,             !- Roughness
    0.25,                    !- Thickness {m}
    2.5,                     !- Conductivity {W/m-K}
    2400,                    !- Density {kg/m3}
    1000;                    !- Specific Heat {J/kg-K}

Material,
    Putz innen 15mm,         !- Name
    Smooth,                  !- Roughness
    0.015,                   !- Thickness {m}
    0.7,                     !- Conductivity {W/m-K}
    1400,                    !- Density {kg/m3}
    1000;                    !- Specific Heat {J/kg-K}

Material,
    Putz aussen 15mm,        !- Name
    VeryRough,               !- Roughness
    0.015,                   !- Thickness {m}
    0.87,                    !- Conductivity {W/m-K}
    1800,                    !- Density {kg/m3}
    1000;                    !- Specific Heat {J/kg-K}

Material,
    Gipskartonplatte 12.5mm, !- Name
    MediumSmooth,            !- Roughness
    0.0125,                  !- Thickness {m}
    0.25,                    !- Conductivity {W/m-K}
    900,                     !- Density {kg/m3}
    1000;                    !- Specific Heat {J/kg-K}

Material,
    Estrich 35mm,            !- Name
    MediumSmooth,            !- Roughness
    0.035,                   !- Thickness {m}
    1.2,                     !- Conductivity {W/m-K}
    2100,                    !- Density {kg/m3}
    1000;                    !- Specific Heat {J/kg-K}

Material,
    Daemmung MW 035 120mm,   !- Name
    Rough,                   !- Roughness
    0.12,                    !- Thickness {m}
    0.035,                   !- Conductivity {W/m-K}
    40,                      !- Density {kg/m3}
    1030;                    !- Specific Heat {J/kg-K}

Material,
    Parkett 13mm,            !- Name
    Smooth,                  !- Roughness
    0.013,                   !- Thickness {m}
    0.18,                    !- Conductivity {W/m-K}
    900,                     !- Density {kg/m3}
    1700;                    !- Specific Heat {J/kg-K}

Material,
    Gipsfaserplatte 18mm,    !- Name
    MediumSmooth,            !- Roughness
    0.018,                   !- Thickness {m}
    0.32,                    !- Conductivity {W/m-K}
    1000,                    !- Density {kg/m3}
    1000;                    !- Specific Heat {J/kg-K}

Material,
    Akustikauflage 20mm,     !- Name
    MediumSmooth,            !- Roughness
    0.02,                    !- Thickness {m}
    0.06,                    !- Conductivity {W/m-K}
    40,                      !- Density {kg/m3}
    1030;                    !- Specific Heat {J/kg-K}

Material,
    Stahlblech 5mm,          !- Name
    Smooth,                  !- Roughness
    0.005,                   !- Thickness {m}
    35,                      !- Conductivity {W/m-K}
    7800,                    !- Density {kg/m3}
    450;                     !- Specific Heat {J/kg-K}


!-   ===========  ALL OBJECTS IN CLASS: MATERIAL:AIRGAP ===========

Material:AirGap,
    Luftraum ruhend WS auf 15-300mm,  !- Name
    0.16;                    !- Thermal Resistance {m2-K/W}


!-   ===========  ALL OBJECTS IN CLASS: WINDOWMATERIAL:GLAZING ===========

WindowMaterial:Glazing,
    Float 6mm,               !- Name
    SpectralAverage,         !- Optical Data Type
    ,                        !- Window Glass Spectral Data Set Name
    0.006,                   !- Thickness {m}
    0.788,                   !- Solar Transmittance at Normal Incidence
    0.074,                   !- Front Side Solar Reflectance at Normal Incidence
    0.074,                   !- Back Side Solar Reflectance at Normal Incidence
    0.888,                   !- Visible Transmittance at Normal Incidence
    0.083,                   !- Front Side Visible Reflectance at Normal Incidence
    0.073,                   !- Back Side Visible Reflectance at Normal Incidence
    0,                       !- Infrared Transmittance at Normal Incidence
    0.837,                   !- Front Side Infrared Hemispherical Emissivity
    0.837,                   !- Back Side Infrared Hemispherical Emissivity
    1,                       !- Conductivity {W/m-K}
    0.9;                     !- Dirt Correction Factor for Solar and Visible Transmittance

WindowMaterial:Glazing,
    Float 8mm,               !- Name
    SpectralAverage,         !- Optical Data Type
    ,                        !- Window Glass Spectral Data Set Name
    0.008,                   !- Thickness {m}
    0.746,                   !- Solar Transmittance at Normal Incidence
    0.069,                   !- Front Side Solar Reflectance at Normal Incidence
    0.069,                   !- Back Side Solar Reflectance at Normal Incidence
    0.875,                   !- Visible Transmittance at Normal Incidence
    0.079,                   !- Front Side Visible Reflectance at Normal Incidence
    0.079,                   !- Back Side Visible Reflectance at Normal Incidence
    0,                       !- Infrared Transmittance at Normal Incidence
    0.837,                   !- Front Side Infrared Hemispherical Emissivity
    0.837,                   !- Back Side Infrared Hemispherical Emissivity
    1,                       !- Conductivity {W/m-K}
    1;                       !- Dirt Correction Factor for Solar and Visible Transmittance

WindowMaterial:Glazing,
    iplusE 6mm,              !- Name
    SpectralAverage,         !- Optical Data Type
    ,                        !- Window Glass Spectral Data Set Name
    0.006,                   !- Thickness {m}
    0.568,                   !- Solar Transmittance at Normal Incidence
    0.311,                   !- Front Side Solar Reflectance at Normal Incidence
    0.221,                   !- Back Side Solar Reflectance at Normal Incidence
    0.88,                    !- Visible Transmittance at Normal Incidence
    0.048,                   !- Front Side Visible Reflectance at Normal Incidence
    0.054,                   !- Back Side Visible Reflectance at Normal Incidence
    0,                       !- Infrared Transmittance at Normal Incidence
    0.037,                   !- Front Side Infrared Hemispherical Emissivity
    0.837,                   !- Back Side Infrared Hemispherical Emissivity
    1,                       !- Conductivity {W/m-K}
    0.9;                     !- Dirt Correction Factor for Solar and Visible Transmittance


!-   ===========  ALL OBJECTS IN CLASS: WINDOWMATERIAL:GAS ===========

WindowMaterial:Gas,
    Argon 16mm,              !- Name
    Argon,                   !- Gas Type
    0.016;                   !- Thickness {m}


!-   ===========  ALL OBJECTS IN CLASS: WINDOWMATERIAL:BLIND ===========

WindowMaterial:Blind,
    Aussenjalousie grau,     !- Name
    Horizontal,              !- Slat Orientation
    0.09,                    !- Slat Width {m}
    0.07,                    !- Slat Separation {m}
    0.001,                   !- Slat Thickness {m}
    45,                      !- Slat Angle {deg}
    160,                     !- Slat Conductivity {W/m-K}
    0,                       !- Slat Beam Solar Transmittance
    0.64,                    !- Front Side Slat Beam Solar Reflectance
    0.64,                    !- Back Side Slat Beam Solar Reflectance
    0,                       !- Slat Diffuse Solar Transmittance
    0.64,                    !- Front Side Slat Diffuse Solar Reflectance
    0.64,                    !- Back Side Slat Diffuse Solar Reflectance
    0,                       !- Slat Beam Visible Transmittance
    0.68,                    !- Front Side Slat Beam Visible Reflectance
    0.68,                    !- Back Side Slat Beam Visible Reflectance
    0,                       !- Slat Diffuse Visible Transmittance
    0.68,                    !- Front Side Slat Diffuse Visible Reflectance
    0.68,                    !- Back Side Slat Diffuse Visible Reflectance
    0,                       !- Slat Infrared Hemispherical Transmittance
    0.9,                     !- Front Side Slat Infrared Hemispherical Emissivity
    0.9,                     !- Back Side Slat Infrared Hemispherical Emissivity
    0.05,                    !- Blind to Glass Distance {m}
    0.3,                     !- Blind Top Opening Multiplier
    0.5,                     !- Blind Bottom Opening Multiplier
    0.3,                     !- Blind Left Side Opening Multiplier
    0.3,                     !- Blind Right Side Opening Multiplier
    20,                      !- Minimum Slat Angle {deg}
    160;                     !- Maximum Slat Angle {deg}


!-   ===========  ALL OBJECTS IN CLASS: CONSTRUCTION ===========

Construction,
    AW S U027,               !- Name
    Putz aussen 15mm,        !- Outside Layer
    Daemmung MW 035 120mm,   !- Layer 2
    Beton 250mm,             !- Layer 3
    Putz innen 15mm;         !- Layer 4

Construction,
    FB L,                    !- Name
    Gipskartonplatte 12.5mm, !- Outside Layer
    Luftraum ruhend WS auf 15-300mm,  !- Layer 2
    Beton 250mm,             !- Layer 3
    Luftraum ruhend WS auf 15-300mm,  !- Layer 4
    Gipsfaserplatte 18mm,    !- Layer 5
    Estrich 35mm,            !- Layer 6
    Parkett 13mm;            !- Layer 7

Construction,
    IT XL,                   !- Name
    Float 8mm;               !- Outside Layer

Construction,
    AF U12,                  !- Name
    iplusE 6mm,              !- Outside Layer
    Argon 16mm,              !- Layer 2
    Float 6mm;               !- Layer 3


!-   ===========  ALL OBJECTS IN CLASS: CONSTRUCTION:INTERNALSOURCE ===========

Construction:InternalSource,